pylon/test/data/bench2_30.raw
0,    100.00, 30 / PSS(tm)E-30 RAW created by rawd30  FRI, FEB 26 2010  15:39
 STANDARD LARGE BENCHMARK CASE 2
 7917 BUSES, 13014 BRANCHES
     1,'XXXXXXXX    ',   0.0000,2,     0.000,     0.000,   6,   1,1.00900,  -3.7289,   1
     2,'XXXXXXXX    ',   0.0000,2,     0.000,     0.000,   6,   1,1.02600,  -4.3736,   1
     3,'XXXXXXXX    ',   0.0000,1,     0.000,     0.000,   6,   1,1.02091,  -5.6859,   1
     4,'XXXXXXXX    ',   0.0000,1,     0.000,     0.000,   6,   1,1.00531, -12.0853,   1
     5,'XXXXXXXX    ',   0.0000,1,     0.000,     0.000,   6,   1,1.00208,  -6.5273,   1
     6,'XXXXXXXX    ',   0.0000,1,     0.000,     0.000,   6,   1,0.99794,  -7.1866,   1
     7,'XXXXXXXX    ',   0.0000,2,     0.000,     0.000,  10,   1,1.05000,  -0.8792,   1
     8,'XXXXXXXX    ',   0.0000,2,     0.000,     0.000,  10,   1,1.02779,  -4.7595,   1
     9,'XXXXXXXX    ',   0.0000,2,     0.000,     0.000,  10,   1,1.00000,  -4.8789,   1
    10,'XXXXXXXX    ',   0.0000,1,     0.000,     0.000,  10,   1,1.00693,  -3.4223,   1
    11,'XXXXXXXX    ',   0.0000,1,     0.000,     0.000,  10,   1,1.01427,  -3.2473,   1
    12,'XXXXXXXX    ',   0.0000,1,     0.000,     0.000,  10,   1,1.01477,  -5.0205,   1
    13,'XXXXXXXX    ',   0.0000,1,     0.000,     0.000,  10,   1,1.01371,  -3.4101,   1
    14,'XXXXXXXX    ',   0.0000,1,     0.000,     0.000,  10,   1,1.03450,  -5.0182,   1
    15,'XXXXXXXX    ',   0.0000,1,     0.000,     0.000,  10,   1,1.01569,  -4.0447,   1
    16,'XXXXXXXX    ',   0.0000,1,     0.000,     0.000,  10,   1,0.99804,  -6.8781,   1
    17,'XXXXXXXX    ',   0.0000,1,     0.000,     0.000,  10,   1,1.02460,  -3.7619,   1
    18,'XXXXXXXX    ',   0.0000,2,     0.000,     0.000,  10,   1,1.05000,  -1.4744,   1
    19,'XXXXXXXX    ',   0.0000,2,     0.000,     0.000,  11,   1,1.04000,  -3.0304,   1
    20,'XXXXXXXX    ',   0.0000,2,     0.000,     0.000,  11,   1,1.02803,  -7.6650,   1
    21,'XXXXXXXX    ',   0.0000,2,     0.000,     0.000,  11,   1,1.01500,  -8.7290,   1
    22,'XXXXXXXX    ',   0.0000,2,     0.000,     0.000,  11,   1,1.01500,  -9.9253,   1
    23,'XXXXXXXX    ',   0.0000,1,     0.000,     0.000,  11,   1,1.01869,  -5.2632,   1
    24,'XXXXXXXX    ',   0.0000,1,     0.000,     0.000,  11,   1,1.00722,  -9.6621,   1
    25,'XXXXXXXX    ',   0.0000,1,     0.000,     0.000,  11,   1,0.99458, -10.7842,   1
    26,'XXXXXXXX    ',   0.0000,1,     0.000,     0.000,  11,   1,0.99807, -10.2233,   1
    27,'XXXXXXXX    ',   0.0000,1,     0.000,     0.000,  11,   1,1.01324,  -6.5128,   1
    28,'XXXXXXXX    ',   0.0000,1,     0.000,     0.000,  11,   1,1.00737,  -9.7737,   1
    29,'XXXXXXXX    ',   0.0000,1,     0.000,     0.000,  11,   1,1.03658,  -6.6340,   1
    30,'XXXXXXXX    ',   0.0000,1,     0.000,     0.000,  11,   1,1.01722,  -8.7068,   1
    31,'XXXXXXXX    ',   0.0000,1,     0.000,     0.000,  11,   1,1.00670,  -9.6123,   1
    32,'XXXXXXXX    ',   0.0000,1,     0.000,     0.000,  11,   1,1.01612,  -7.9900,   1
    33,'XXXXXXXX    ',   0.0000,1,     0.000,     0.000,  11,   1,1.00052, -10.1090,   1
    34,'XXXXXXXX    ',   0.0000,1,     0.000,     0.000,  11,   1,1.00765,  -9.8797,   1
    35,'XXXXXXXX    ',   0.0000,1,     0.000,     0.000,  11,   1,1.01719, -11.9868,   1
    36,'XXXXXXXX    ',   0.0000,1,     0.000,     0.000,  11,   1,1.01816, -12.8573,   1
    37,'XXXXXXXX    ',   0.0000,1,     0.000,     0.000,  11,   1,1.01671, -11.8127,   1
    38,'XXXXXXXX    ',   0.0000,1,     0.000,     0.000,  11,   1,1.01870, -12.1565,   1
    39,'XXXXXXXX    ',   0.0000,1,     0.000,     0.000,  11,   1,1.01251, -13.1686,   1
    40,'XXXXXXXX    ',   0.0000,1,     0.000,     0.000,  11,   1,1.02252, -12.1113,   1
    41,'XXXXXXXX    ',   0.0000,1,     0.000,     0.000,  11,   1,1.02239, -12.7264,   1
    42,'XXXXXXXX    ',   0.0000,1,     0.000,     0.000,  11,   1,1.02462, -11.9339,   1
    43,'XXXXXXXX    ',   0.0000,1,     0.000,     0.000,  11,   1,1.00677, -13.0350,   1
    44,'XXXXXXXX    ',   0.0000,1,     0.000,     0.000,  11,   1,1.01647, -12.9216,   1
    45,'XXXXXXXX    ',   0.0000,1,     0.000,     0.000,  11,   1,0.99874, -10.1877,   1
    46,'XXXXXXXX    ',   0.0000,1,     0.000,     0.000,  11,   1,1.00650, -10.9136,   1
    47,'XXXXXXXX    ',   0.0000,1,     0.000,     0.000,  11,   1,1.02955,  -7.1666,   1
    48,'XXXXXXXX    ',   0.0000,1,     0.000,     0.000,  11,   1,1.00567,  -9.7876,   1
    49,'XXXXXXXX    ',   0.0000,1,     0.000,     0.000,  11,   1,1.01368, -12.5190,   1
    50,'XXXXXXXX    ',   0.0000,1,     0.000,     0.000,  11,   1,1.01897, -11.8110,   1
    51,'XXXXXXXX    ',   0.0000,1,     0.000,     0.000,  11,   1,1.02745,  -4.3373,   1
    52,'XXXXXXXX    ',   0.0000,1,     0.000,     0.000,  11,   1,1.01998,  -4.9330,   1
    53,'XXXXXXXX    ',   0.0000,1,     0.000,     0.000,  11,   1,1.00601,  -9.6498,   1
    54,'XXXXXXXX    ',   0.0000,1,     0.000,     0.000,  11,   1,1.03165,  -7.1026,   1
    55,'XXXXXXXX    ',   0.0000,1,     0.000,     0.000,  11,   1,1.01855,  -8.0854,   1
    56,'XXXXXXXX    ',   0.0000,1,     0.000,     0.000,  11,   1,1.02489, -11.2089,   1
    57,'XXXXXXXX    ',   0.0000,1,     0.000,     0.000,  11,   1,1.01149, -13.0364,   1
    58,'XXXXXXXX    ',   0.0000,1,     0.000,     0.000,  11,   1,1.00726, -13.2700,   1
    59,'XXXXXXXX    ',   0.0000,1,     0.000,     0.000,  11,   1,1.01472, -12.9692,   1
    60,'XXXXXXXX    ',   0.0000,1,     0.000,     0.000,  11,   1,1.00984, -12.9894,   1
    61,'XXXXXXXX    ',   0.0000,1,     0.000,     0.000,  11,   1,1.01847, -13.1177,   1
    62,'XXXXXXXX    ',   0.0000,1,     0.000,     0.000,  11,   1,0.99806, -14.1472,   1
    63,'XXXXXXXX    ',   0.0000,1,     0.000,     0.000,  11,   1,0.99769, -10.7409,   1
    64,'XXXXXXXX    ',   0.0000,1,     0.000,     0.000,  11,   1,0.99201, -11.0016,   1
    65,'XXXXXXXX    ',   0.0000,1,     0.000,     0.000,  11,   1,1.01388,  -9.0934,   1
    66,'XXXXXXXX    ',   0.0000,1,     0.000,     0.000,  11,   1,1.01741,  -8.6034,   1
    67,'XXXXXXXX    ',   0.0000,1,     0.000,     0.000,  11,   1,1.01319,  -9.0050,   1
    68,'XXXXXXXX    ',   0.0000,1,     0.000,     0.000,  11,   1,0.99285, -11.3246,   1
    69,'XXXXXXXX    ',   0.0000,1,     0.000,     0.000,  11,   1,1.02082,  -8.2379,   1
    70,'XXXXXXXX    ',   0.0000,1,     0.000,     0.000,  11,   1,0.99457, -10.9033,   1
    71,'XXXXXXXX    ',   0.0000,1,     0.000,     0.000,  11,   1,1.01355,  -8.9012,   1
    72,'XXXXXXXX    ',   0.0000,1,     0.000,     0.000,  11,   1,1.00098, -10.2886,   1
    73,'XXXXXXXX    ',   0.0000,1,     0.000,     0.000,  11,   1,1.00621,  -9.7554,   1
    74,'XXXXXXXX    ',   0.0000,1,     0.000,     0.000,  11,   1,1.01175,  -9.1831,   1
    75,'XXXXXXXX    ',   0.0000,1,     0.000,     0.000,  14,   1,1.00749,  -6.5289,   1
    76,'XXXXXXXX    ',   0.0000,2,     0.000,     0.000,  14,   1,1.03500,  -0.8412,   1
    77,'XXXXXXXX    ',   0.0000,1,     0.000,     0.000,  14,   1,1.03155,  -5.2121,   1
    78,'XXXXXXXX    ',   0.0000,2,     0.000,     0.000,  14,   1,1.03500,  -4.9326,   1
    79,'XXXXXXXX    ',   0.0000,1,     0.000,     0.000,  14,   1,1.03502,  -5.1036,   1
    80,'XXXXXXXX    ',   0.0000,1,     0.000,     0.000,  14,   1,1.03428,  -6.3433,   1
    81,'XXXXXXXX    ',   0.0000,1,     0.000,     0.000,  14,   1,1.01781,  -4.0749,   1
    82,'XXXXXXXX    ',   0.0000,1,     0.000,     0.000,  14,   1,1.02544,  -2.7926,   1
    83,'XXXXXXXX    ',   0.0000,1,     0.000,     0.000,  14,   1,0.99826,  -2.8417,   1
    84,'XXXXXXXX    ',   0.0000,1,     0.000,     0.000,  11,   1,1.00741,  -9.6029,   1
    85,'XXXXXXXX    ',   0.0000,1,     0.000,     0.000,  14,   1,1.01846, -14.8535,   1
    86,'XXXXXXXX    ',   0.0000,1,     0.000,     0.000,  14,   1,0.97097, -18.7722,   1
    87,'XXXXXXXX    ',   0.0000,1,     0.000,     0.000,  14,   1,1.02910,  -6.2860,   1
    88,'XXXXXXXX    ',   0.0000,2,     0.000,     0.000,  14,   1,1.03500,   3.9061,   1
    89,'XXXXXXXX    ',   0.0000,1,     0.000,     0.000,  11,   1,1.01435,  -8.9135,   1
    90,'XXXXXXXX    ',   0.0000,1,     0.000,     0.000,   6,   1,1.00908,  -6.5727,   1
    91,'XXXXXXXX    ',   0.0000,2,     0.000,     0.000,   7,   1,1.00464,  -3.1809,   1
    92,'XXXXXXXX    ',   0.0000,1,     0.000,     0.000,   5,   1,1.00622,  -3.8976,   1
    93,'XXXXXXXX    ',   0.0000,1,     0.000,     0.000,   5,   1,0.97488,  -6.4463,   1
    94,'XXXXXXXX    ',   0.0000,1,     0.000,     0.000,   5,   1,1.00403,  -2.9747,   1
    95,'XXXXXXXX    ',   0.0000,1,     0.000,     0.000,   5,   1,1.04462, -15.3419,   1
    96,'XXXXXXXX    ',   0.0000,1,     0.000,     0.000,   5,   1,1.01976, -15.5079,   1
    97,'XXXXXXXX    ',   0.0000,1,     0.000,     0.000,   5,   1,1.01677, -15.7232,   1
    98,'XXXXXXXX    ',   0.0000,2,     0.000,     0.000,   5,   1,1.01068,  -0.9971,   1
    99,'XXXXXXXX    ',   0.0000,1,     0.000,  -600.000,   5,   1,0.97731,  -2.6167,   1
   100,'XXXXXXXX    ',   0.0000,1,     0.000,  -300.000,   5,   1,1.00511,  -7.8731,   1
   101,'XXXXXXXX    ',   0.0000,1,     0.000,     0.000,   5,   1,1.06533,  -7.3114,   1
   102,'XXXXXXXX    ',   0.0000,2,     0.000,  -150.000,   5,   1,0.98301,  -1.0732,   1
   103,'XXXXXXXX    ',   0.0000,2,     0.000,     0.000,   5,   1,1.02500,  -2.6658,   1
   104,'XXXXXXXX    ',   0.0000,1,     0.000,     0.000,   5,   1,1.01040, -10.1116,   1
   105,'XXXXXXXX    ',   0.0000,1,     0.000,     0.000,   5,   1,1.04191,  -9.8214,   1
   106,'XXXXXXXX    ',   0.0000,1,     0.000,  -450.000,   5,   1,1.00035, -12.8995,   1
   107,'XXXXXXXX    ',   0.0000,1,     0.000,     0.000,   5,   1,0.99050,   0.2397,   1
   108,'XXXXXXXX    ',   0.0000,1,     0.000,     0.000,   5,   1,1.00032, -14.1260,   1
   109,'XXXXXXXX    ',   0.0000,1,     0.000,     0.000,   5,   1,0.98408,  -1.5592,   1
   110,'XXXXXXXX    ',   0.0000,1,     0.000,  -300.000,   5,   1,0.97694,  -3.6322,   1
   111,'XXXXXXXX    ',   0.0000,1,     0.000,     0.000,   5,   1,1.06560,  -5.3865,   1
   112,'XXXXXXXX    ',   0.0000,2,     0.000,     0.000,   5,   1,0.98900,   0.3202,   1
   113,'XXXXXXXX    ',   0.0000,1,     0.000,    51.300,   5,   1,0.99542, -20.3626,   1
   114,'XXXXXXXX    ',   0.0000,1,     0.000,     0.000,   5,   1,0.99304, -13.4772,   1
   115,'XXXXXXXX    ',   0.0000,1,     0.000,    51.300,   5,   1,1.00288, -19.6112,   1
   116,'XXXXXXXX    ',   0.0000,1,     0.000,     0.000,   5,   1,0.99611, -20.5788,   1
   117,'XXXXXXXX    ',   0.0000,1,     0.000,     0.000,   5,   1,0.99508, -19.5230,   1
   118,'XXXXXXXX    ',   0.0000,1,     0.000,     0.000,   5,   1,0.98673, -18.3837,   1
   119,'XXXXXXXX    ',   0.0000,2,     0.000,     0.000,   5,   1,1.00000, -20.0422,   1
   120,'XXXXXXXX    ',   0.0000,1,     0.000,     0.000,   5,   1,0.99887, -20.6453,   1
   121,'XXXXXXXX    ',   0.0000,1,     0.000,     0.000,   5,   1,0.98576, -21.3520,   1
   122,'XXXXXXXX    ',   0.0000,1,     0.000,     0.000,   5,   1,0.98794, -22.1868,   1
   123,'XXXXXXXX    ',   0.0000,1,     0.000,     0.000,   5,   1,0.98855, -22.4248,   1
   124,'XXXXXXXX    ',   0.0000,1,     0.000,     0.000,   5,   1,1.00253, -18.7670,   1
   125,'XXXXXXXX    ',   0.0000,2,     0.000,   100.000,   5,   1,1.00000, -31.1864,   1
   126,'XXXXXXXX    ',   0.0000,1,     0.000,    50.400,   5,   1,0.98378, -34.1465,   1
   127,'XXXXXXXX    ',   0.0000,1,     0.000,     0.000,   5,   1,0.99193, -31.0857,   1
   128,'XXXXXXXX    ',   0.0000,1,     0.000,     0.000,   5,   1,1.00397, -24.9099,   1
   129,'XXXXXXXX    ',   0.0000,1,     0.000,     0.000,   5,   1,1.00009, -30.5802,   1
   130,'XXXXXXXX    ',   0.0000,1,     0.000,     0.000,   5,   1,0.99906, -31.3872,   1
   131,'XXXXXXXX    ',   0.0000,1,     0.000,     0.000,   5,   1,0.99735, -31.8046,   1
   132,'XXXXXXXX    ',   0.0000,1,     0.000,    50.400,   5,   1,0.98134, -33.7838,   1
   133,'XXXXXXXX    ',   0.0000,1,     0.000,     0.000,   5,   1,0.99163, -28.5409,   1
   134,'XXXXXXXX    ',   0.0000,2,     0.000,     0.000,   5,   1,1.00000, -23.7316,   1
   135,'XXXXXXXX    ',   0.0000,2,     0.000,     0.000,   5,   1,0.99703, -22.6084,   1
   136,'XXXXXXXX    ',   0.0000,1,     0.000,     0.000,   5,   1,1.02199, -18.3309,   1
   137,'XXXXXXXX    ',   0.0000,1,     0.000,     0.000,   5,   1,1.00099, -22.9111,   1
   138,'XXXXXXXX    ',   0.0000,1,     0.000,    50.000,   5,   1,1.00157, -22.2262,   1
   139,'XXXXXXXX    ',   0.0000,1,     0.000,     0.000,   5,   1,1.02464, -18.3336,   1
   140,'XXXXXXXX    ',   0.0000,1,     0.000,     0.000,   5,   1,1.00447, -22.1202,   1
   141,'XXXXXXXX    ',   0.0000,1,     0.000,     0.000,   5,   1,1.00326, -22.1384,   1
   142,'XXXXXXXX    ',   0.0000,1,     0.000,     0.000,   5,   1,1.00055, -22.5483,   1
   143,'XXXXXXXX    ',   0.0000,1,     0.000,     0.000,   5,   1,1.00659, -21.8708,   1
   144,'XXXXXXXX    ',   0.0000,1,     0.000,     0.000,   5,   1,1.00137, -22.0065,   1
   145,'XXXXXXXX    ',   0.0000,1,     0.000,     0.000,   5,   1,1.00713, -19.5981,   1
   146,'XXXXXXXX    ',   0.0000,1,     0.000,     0.000,   5,   1,1.01841, -19.6661,   1
   147,'XXXXXXXX    ',   0.0000,1,     0.000,     0.000,   5,   1,1.02098, -19.1563,   1
   148,'XXXXXXXX    ',   0.0000,1,     0.000,     0.000,   5,   1,1.02582, -18.4848,   1
   149,'XXXXXXXX    ',   0.0000,1,     0.000,     0.000,   5,   1,1.01061, -20.0949,   1
   150,'XXXXXXXX    ',   0.0000,1,     0.000,     0.000,   5,   1,1.01733, -16.9833,   1
   151,'XXXXXXXX    ',   0.0000,2,     0.000,   201.600,   5,   1,1.01700, -16.3278,   1
   152,'XXXXXXXX    ',   0.0000,1,     0.000,     0.000,   5,   1,1.01552, -17.2607,   1
   153,'XXXXXXXX    ',   0.0000,2,     0.000,    50.000,   5,   1,1.01523, -18.8167,   1
   154,'XXXXXXXX    ',   0.0000,1,     0.000,     0.000,   5,   1,1.01534, -18.6163,   1
   155,'XXXXXXXX    ',   0.0000,1,     0.000,     0.000,   5,   1,1.01932, -16.5469,   1
   156,'XXXXXXXX    ',   0.0000,1,     0.000,     0.000,   5,   1,1.03120, -14.6925,   1
   157,'XXXXXXXX    ',   0.0000,2,     0.000,    50.000,   5,   1,1.01771, -14.8971,   1
   158,'XXXXXXXX    ',   0.0000,1,     0.000,     0.000,   5,   1,1.03084, -13.5135,   1
   159,'XXXXXXXX    ',   0.0000,1,     0.000,     0.000,   5,   1,1.04648,  -7.3644,   1
   160,'XXXXXXXX    ',   0.0000,1,     0.000,    50.400,   5,   1,1.03709,  -7.9383,   1
   161,'XXXXXXXX    ',   0.0000,1,     0.000,     0.000,   5,   1,1.04031,  -7.7761,   1
   162,'XXXXXXXX    ',   0.0000,1,     0.000,     0.000,   5,   1,1.04265,  -7.6053,   1
   163,'XXXXXXXX    ',   0.0000,1,     0.000,     0.000,   5,   1,1.04101,  -7.8222,   1
   164,'XXXXXXXX    ',   0.0000,1,     0.000,     0.000,   5,   1,1.03257,  -7.9233,   1
   165,'XXXXXXXX    ',   0.0000,1,     0.000,     0.000,   5,   1,1.04160,  -7.6882,   1
   166,'XXXXXXXX    ',   0.0000,1,     0.000,     0.000,   5,   1,1.03624,  -7.8476,   1
   167,'XXXXXXXX    ',   0.0000,1,     0.000,     0.000,   5,   1,1.04334,  -7.6851,   1
   168,'XXXXXXXX    ',   0.0000,1,     0.000,     0.000,   5,   1,1.01875, -13.1123,   1
   169,'XXXXXXXX    ',   0.0000,1,     0.000,     0.000,   5,   1,1.01644,  -7.3861,   1
   170,'XXXXXXXX    ',   0.0000,1,     0.000,     0.000,   5,   1,1.02754,  -9.3353,   1
   171,'XXXXXXXX    ',   0.0000,1,     0.000,     0.000,   5,   1,1.02924,  -7.3895,   1
   172,'XXXXXXXX    ',   0.0000,2,     0.000,     0.000,   5,   1,1.02996,  -5.6263,   1
   173,'XXXXXXXX    ',   0.0000,1,     0.000,     0.000,   5,   1,1.02699,  -7.2602,   1
   174,'XXXXXXXX    ',   0.0000,1,     0.000,     0.000,   5,   1,1.00864, -11.7332,   1
   175,'XXXXXXXX    ',   0.0000,1,     0.000,     0.000,   5,   1,1.02550,  -8.9931,   1
   176,'XXXXXXXX    ',   0.0000,1,     0.000,     0.000,   5,   1,1.02104, -11.7162,   1
   177,'XXXXXXXX    ',   0.0000,1,     0.000,     0.000,   5,   1,1.04464,  -6.4808,   1
   178,'XXXXXXXX    ',   0.0000,1,     0.000,     0.000,   5,   1,1.05276,  -6.8455,   1
   179,'XXXXXXXX    ',   0.0000,1,     0.000,    50.400,   5,   1,1.03109, -11.1072,   1
   180,'XXXXXXXX    ',   0.0000,1,     0.000,     0.000,   5,   1,1.02583, -11.2765,   1
   181,'XXXXXXXX    ',   0.0000,2,     0.000,    50.400,   5,   1,1.01405, -10.7530,   1
   182,'XXXXXXXX    ',   0.0000,1,     0.000,     0.000,   5,   1,1.00659, -13.6720,   1
   183,'XXXXXXXX    ',   0.0000,1,     0.000,     0.000,   5,   1,1.01197, -11.4839,   1
   184,'XXXXXXXX    ',   0.0000,1,     0.000,     0.000,   5,   1,1.02965,  -9.6725,   1
   185,'XXXXXXXX    ',   0.0000,1,     0.000,     0.000,   5,   1,0.99716, -32.0067,   1
   186,'XXXXXXXX    ',   0.0000,1,     0.000,     0.000,   5,   1,1.03336, -12.3087,   1
   187,'XXXXXXXX    ',   0.0000,1,     0.000,     0.000,   5,   1,1.02263, -15.4734,   1
   188,'XXXXXXXX    ',   0.0000,1,     0.000,     0.000,   5,   1,1.01691, -16.7575,   1
   189,'XXXXXXXX    ',   0.0000,1,     0.000,     0.000,   5,   1,1.03054, -10.5712,   1
   190,'XXXXXXXX    ',   0.0000,1,     0.000,     0.000,   5,   1,1.05348,  -6.7460,   1
   191,'XXXXXXXX    ',   0.0000,1,     0.000,     0.000,   5,   1,1.02842,  -7.8577,   1
   192,'XXXXXXXX    ',   0.0000,1,     0.000,     0.000,   5,   1,1.01506,  -8.8155,   1
   193,'XXXXXXXX    ',   0.0000,1,     0.000,     0.000,   5,   1,1.01967, -10.2257,   1
   194,'XXXXXXXX    ',   0.0000,1,     0.000,     0.000,   5,   1,1.00478, -15.4204,   1
   195,'XXXXXXXX    ',   0.0000,1,     0.000,     0.000,   5,   1,1.01149, -16.0205,   1
   196,'XXXXXXXX    ',   0.0000,1,     0.000,     0.000,   5,   1,1.00792, -15.7772,   1
   197,'XXXXXXXX    ',   0.0000,2,     0.000,    50.000,   5,   1,1.00432, -15.1630,   1
   198,'XXXXXXXX    ',   0.0000,1,     0.000,     0.000,   5,   1,1.00680, -15.7029,   1
   199,'XXXXXXXX    ',   0.0000,2,     0.000,    50.000,   5,   1,1.01378,  -8.2510,   1
...
 0 / END OF BUS DATA, BEGIN LOAD DATA
     5,'1 ',1,   6,   1,   451.360,   155.400,     0.000,     0.000,     0.000,     0.000,   1
     6,'1 ',1,   6,   1,   808.580,   271.460,     0.000,     0.000,     0.000,     0.000,   1
     7,'1 ',1,  10,   1,   660.000,   250.000,     0.000,     0.000,     0.000,     0.000,   1
     8,'1 ',1,  10,   1,   180.000,    85.000,     0.000,     0.000,     0.000,     0.000,   1
     9,'1 ',1,  10,   1,   390.000,   180.000,     0.000,     0.000,     0.000,     0.000,   1
    10,'1 ',1,  10,   1,    12.000,     6.000,     0.000,     0.000,     0.000,     0.000,   1
    12,'1 ',1,  10,   1,    50.000,    15.000,     0.000,     0.000,     0.000,     0.000,   1
    13,'1 ',1,  10,   1,    85.000,    35.000,     0.000,     0.000,     0.000,     0.000,   1
    16,'1 ',1,  10,   1,   155.000,    35.000,     0.000,     0.000,     0.000,     0.000,   1
    17,'1 ',1,  10,   1,    60.000,    12.000,     0.000,     0.000,     0.000,     0.000,   1
    21,'1 ',1,  11,   1,    27.000,     9.000,     0.000,     0.000,     0.000,     0.000,   1
    24,'1 ',1,  11,   1,    10.000,     3.000,     0.000,     0.000,     0.000,     0.000,   1
    25,'1 ',1,  11,   1,    90.000,    30.000,     0.000,     0.000,     0.000,     0.000,   1
    28,'1 ',1,  11,   1,    85.000,    28.000,     0.000,     0.000,     0.000,     0.000,   1
    29,'1 ',1,  11,   1,    27.000,     9.000,     0.000,     0.000,     0.000,     0.000,   1
    31,'1 ',1,  11,   1,    10.000,     3.000,     0.000,     0.000,     0.000,     0.000,   1
    32,'1 ',1,  11,   1,    53.000,    17.000,     0.000,     0.000,     0.000,     0.000,   1
    33,'1 ',1,  11,   1,    20.000,     7.000,     0.000,     0.000,     0.000,     0.000,   1
    34,'1 ',1,  11,   1,    41.000,    14.000,     0.000,     0.000,     0.000,     0.000,   1
    35,'1 ',1,  11,   1,   106.000,    37.000,     0.000,     0.000,     0.000,     0.000,   1
    36,'1 ',1,  11,   1,    68.000,    22.000,     0.000,     0.000,     0.000,     0.000,   1
    37,'1 ',1,  11,   1,    67.000,    22.000,     0.000,     0.000,     0.000,     0.000,   1
    38,'1 ',1,  11,   1,    50.000,    17.000,     0.000,     0.000,     0.000,     0.000,   1
    39,'1 ',1,  11,   1,    75.000,    24.000,     0.000,     0.000,     0.000,     0.000,   1
    40,'1 ',1,  11,   1,    48.000,    16.000,     0.000,     0.000,     0.000,     0.000,   1
    41,'1 ',1,  11,   1,    58.000,    20.000,     0.000,     0.000,     0.000,     0.000,   1
    42,'1 ',1,  11,   1,    12.000,     5.000,     0.000,     0.000,     0.000,     0.000,   1
    43,'1 ',1,  11,   1,   115.000,    55.000,     0.000,     0.000,     0.000,     0.000,   1
    44,'1 ',1,  11,   1,    86.000,    29.000,     0.000,     0.000,     0.000,     0.000,   1
    47,'1 ',1,  11,   1,    12.000,     4.000,     0.000,     0.000,     0.000,     0.000,   1
    48,'1 ',1,  11,   1,    18.000,     6.000,     0.000,     0.000,     0.000,     0.000,   1
    49,'1 ',1,  11,   1,    72.000,    27.000,     0.000,     0.000,     0.000,     0.000,   1
    56,'1 ',1,  11,   1,    66.000,    22.000,     0.000,     0.000,     0.000,     0.000,   1
    57,'1 ',1,  11,   1,   124.000,    42.000,     0.000,     0.000,     0.000,     0.000,   1
    58,'1 ',1,  11,   1,   136.000,    45.000,     0.000,     0.000,     0.000,     0.000,   1
    59,'1 ',1,  11,   1,   117.000,    37.000,     0.000,     0.000,     0.000,     0.000,   1
    60,'1 ',1,  11,   1,    83.000,    24.000,     0.000,     0.000,     0.000,     0.000,   1
    61,'1 ',1,  11,   1,   125.000,    39.000,     0.000,     0.000,     0.000,     0.000,   1
    62,'1 ',1,  11,   1,    44.000,    16.000,     0.000,     0.000,     0.000,     0.000,   1
    63,'1 ',1,  11,   1,    14.000,     5.000,     0.000,     0.000,     0.000,     0.000,   1
    64,'1 ',1,  11,   1,    18.000,     6.000,     0.000,     0.000,     0.000,     0.000,   1
    65,'1 ',1,  11,   1,    15.000,     5.000,     0.000,     0.000,     0.000,     0.000,   1
    66,'1 ',1,  11,   1,    44.000,    15.000,     0.000,     0.000,     0.000,     0.000,   1
    67,'1 ',1,  11,   1,    30.000,    10.000,     0.000,     0.000,     0.000,     0.000,   1
    68,'1 ',1,  11,   1,    28.000,     9.000,     0.000,     0.000,     0.000,     0.000,   1
    69,'1 ',1,  11,   1,    30.000,    10.000,     0.000,     0.000,     0.000,     0.000,   1
    72,'1 ',1,  11,   1,    59.000,    20.000,     0.000,     0.000,     0.000,     0.000,   1
    73,'1 ',1,  11,   1,    30.000,    10.000,     0.000,     0.000,     0.000,     0.000,   1
    76,'1 ',1,  14,   1,   423.000,   210.000,     0.000,     0.000,     0.000,     0.000,   1
    77,'1 ',1,  14,   1,    75.000,     5.000,     0.000,     0.000,     0.000,     0.000,   1
    78,'1 ',1,  14,   1,   365.000,   176.800,     0.000,     0.000,     0.000,     0.000,   1
    80,'1 ',1,  14,   1,    73.000,    35.000,     0.000,     0.000,     0.000,     0.000,   1
    81,'1 ',1,  14,   1,    70.000,    35.000,     0.000,     0.000,     0.000,     0.000,   1
    82,'1 ',1,  14,   1,    72.000,    35.000,     0.000,     0.000,     0.000,     0.000,   1
    85,'1 ',1,  14,   1,    46.000,    23.000,     0.000,     0.000,     0.000,     0.000,   1
    86,'1 ',1,  14,   1,    61.000,    30.000,     0.000,     0.000,     0.000,     0.000,   1
    87,'1 ',1,  14,   1,     8.000,     4.000,     0.000,     0.000,     0.000,     0.000,   1
    89,'1 ',1,  11,   1,    29.000,    10.000,     0.000,     0.000,     0.000,     0.000,   1
    91,'1 ',1,   7,   1,     1.000,     0.000,     0.000,     0.000,     0.000,     0.000,   1
   113,'1 ',1,   5,   1,    64.970,     6.980,     0.000,     0.000,     0.000,     0.000,   1
   114,'1 ',1,   5,   1,    19.510,     0.000,     0.000,     0.000,     0.000,     0.000,   1
   115,'1 ',1,   5,   1,    56.020,    14.060,     0.000,     0.000,     0.000,     0.000,   1
   116,'1 ',1,   5,   1,    70.310,    16.410,     0.000,     0.000,     0.000,     0.000,   1
   117,'1 ',1,   5,   1,    13.850,     3.150,     0.000,     0.000,     0.000,     0.000,   1
   118,'1 ',1,   5,   1,    29.480,     6.290,     0.000,     0.000,     0.000,     0.000,   1
   119,'1 ',1,   5,   1,    61.510,    12.770,     0.000,     0.000,     0.000,     0.000,   1
   120,'1 ',1,   5,   1,    16.470,     4.300,     0.000,     0.000,     0.000,     0.000,   1
   121,'1 ',1,   5,   1,    30.390,     9.630,     0.000,     0.000,     0.000,     0.000,   1
   122,'1 ',1,   5,   1,    18.770,     7.050,     0.000,     0.000,     0.000,     0.000,   1
   123,'1 ',1,   5,   1,    16.470,     7.240,     0.000,     0.000,     0.000,     0.000,   1
   125,'1 ',1,   5,   1,    49.670,    -2.450,     0.000,     0.000,     0.000,     0.000,   1
   126,'1 ',1,   5,   1,   147.770,    -9.830,     0.000,     0.000,     0.000,     0.000,   1
   127,'1 ',1,   5,   1,    50.350,     3.460,     0.000,     0.000,     0.000,     0.000,   1
   128,'1 ',1,   5,   1,    33.310,    -8.350,     0.000,     0.000,     0.000,     0.000,   1
   129,'1 ',1,   5,   1,    38.450,    -9.990,     0.000,     0.000,     0.000,     0.000,   1
   130,'1 ',1,   5,   1,    19.200,     7.030,     0.000,     0.000,     0.000,     0.000,   1
   131,'1 ',1,   5,   1,    40.810,     7.550,     0.000,     0.000,     0.000,     0.000,   1
   132,'1 ',1,   5,   1,   141.610,    61.790,     0.000,     0.000,     0.000,     0.000,   1
   133,'1 ',1,   5,   1,    47.030,    16.560,     0.000,     0.000,     0.000,     0.000,   1
   136,'1 ',1,   5,   1,   127.770,    32.730,     0.000,     0.000,     0.000,     0.000,   1
   137,'1 ',1,   5,   1,    75.090,   -15.000,     0.000,     0.000,     0.000,     0.000,   1
   138,'1 ',1,   5,   1,   128.540,    58.690,     0.000,     0.000,     0.000,     0.000,   1
   139,'1 ',1,   5,   1,     9.040,     2.240,     0.000,     0.000,     0.000,     0.000,   1
   140,'1 ',1,   5,   1,    13.430,     4.510,     0.000,     0.000,     0.000,     0.000,   1
   141,'1 ',1,   5,   1,    19.720,     5.870,     0.000,     0.000,     0.000,     0.000,   1
   142,'1 ',1,   5,   1,    25.070,     6.710,     0.000,     0.000,     0.000,     0.000,   1
   143,'1 ',1,   5,   1,    13.220,     2.830,     0.000,     0.000,     0.000,     0.000,   1
   144,'1 ',1,   5,   1,    16.050,     5.240,     0.000,     0.000,     0.000,     0.000,   1
   145,'1 ',1,   5,   1,   101.750,    30.630,     0.000,     0.000,     0.000,     0.000,   1
   146,'1 ',1,   5,   1,     3.460,     1.150,     0.000,     0.000,     0.000,     0.000,   1
   147,'1 ',1,   5,   1,    29.770,   -24.650,     0.000,     0.000,     0.000,     0.000,   1
   148,'1 ',1,   5,   1,    32.810,   -18.680,     0.000,     0.000,     0.000,     0.000,   1
   149,'1 ',1,   5,   1,    15.940,    -3.040,     0.000,     0.000,     0.000,     0.000,   1
   150,'1 ',1,   5,   1,    12.810,     3.340,     0.000,     0.000,     0.000,     0.000,   1
   151,'1 ',1,   5,   1,    27.380,    11.960,     0.000,     0.000,     0.000,     0.000,   1
   152,'1 ',1,   5,   1,    11.220,    -2.310,     0.000,     0.000,     0.000,     0.000,   1
   153,'1 ',1,   5,   1,    21.930,     4.740,     0.000,     0.000,     0.000,     0.000,   1
   154,'1 ',1,   5,   1,    27.590,    -6.400,     0.000,     0.000,     0.000,     0.000,   1
   155,'1 ',1,   5,   1,    12.690,     4.510,     0.000,     0.000,     0.000,     0.000,   1
   156,'1 ',1,   5,   1,    34.090,   -19.410,     0.000,     0.000,     0.000,     0.000,   1
   157,'1 ',1,   5,   1,    54.760,    11.540,     0.000,     0.000,     0.000,     0.000,   1
   158,'1 ',1,   5,   1,    17.620,     6.190,     0.000,     0.000,     0.000,     0.000,   1
   159,'1 ',1,   5,   1,    35.350,    21.500,     0.000,     0.000,     0.000,     0.000,   1
   160,'1 ',1,   5,   1,    70.390,    37.240,     0.000,     0.000,     0.000,     0.000,   1
   161,'1 ',1,   5,   1,     5.450,     1.990,     0.000,     0.000,     0.000,     0.000,   1
   162,'1 ',1,   5,   1,    20.980,    12.060,     0.000,     0.000,     0.000,     0.000,   1
   163,'1 ',1,   5,   1,    46.790,    -3.040,     0.000,     0.000,     0.000,     0.000,   1
   164,'1 ',1,   5,   1,    15.730,     5.450,     0.000,     0.000,     0.000,     0.000,   1
   165,'1 ',1,   5,   1,    13.740,     4.620,     0.000,     0.000,     0.000,     0.000,   1
   166,'1 ',1,   5,   1,     5.770,     1.990,     0.000,     0.000,     0.000,     0.000,   1
   167,'1 ',1,   5,   1,     5.560,     1.890,     0.000,     0.000,     0.000,     0.000,   1
   168,'1 ',1,   5,   1,    15.730,     4.510,     0.000,     0.000,     0.000,     0.000,   1
   169,'1 ',1,   5,   1,    36.400,     2.100,     0.000,     0.000,     0.000,     0.000,   1
   170,'1 ',1,   5,   1,    25.180,    -4.140,     0.000,     0.000,     0.000,     0.000,   1
   171,'1 ',1,   5,   1,    62.310,   -10.910,     0.000,     0.000,     0.000,     0.000,   1
   172,'1 ',1,   5,   1,     2.600,    -0.530,     0.000,     0.000,     0.000,     0.000,   1
   173,'1 ',1,   5,   1,    14.430,     2.820,     0.000,     0.000,     0.000,     0.000,   1
   174,'1 ',1,   5,   1,    64.410,    -0.630,     0.000,     0.000,     0.000,     0.000,   1
   175,'1 ',1,   5,   1,    19.300,     5.140,     0.000,     0.000,     0.000,     0.000,   1
   176,'1 ',1,   5,   1,    19.090,     6.400,     0.000,     0.000,     0.000,     0.000,   1
   177,'1 ',1,   5,   1,     3.780,     1.150,     0.000,     0.000,     0.000,     0.000,   1
   178,'1 ',1,   5,   1,    14.790,   -17.830,     0.000,     0.000,     0.000,     0.000,   1
   179,'1 ',1,   5,   1,    71.650,    16.260,     0.000,     0.000,     0.000,     0.000,   1
   180,'1 ',1,   5,   1,    84.430,    -7.180,     0.000,     0.000,     0.000,     0.000,   1
   181,'1 ',1,   5,   1,    36.400,    -4.720,     0.000,     0.000,     0.000,     0.000,   1
   182,'1 ',1,   5,   1,     6.710,     2.200,     0.000,     0.000,     0.000,     0.000,   1
   183,'1 ',1,   5,   1,     3.670,     0.630,     0.000,     0.000,     0.000,     0.000,   1
   184,'1 ',1,   5,   1,     3.570,     1.470,     0.000,     0.000,     0.000,     0.000,   1
   185,'1 ',1,   5,   1,    23.810,     1.360,     0.000,     0.000,     0.000,     0.000,   1
   188,'1 ',1,   5,   1,    11.430,     3.040,     0.000,     0.000,     0.000,     0.000,   1
   192,'1 ',1,   5,   1,    10.590,     4.510,     0.000,     0.000,     0.000,     0.000,   1
   193,'1 ',1,   5,   1,     6.400,     1.150,     0.000,     0.000,     0.000,     0.000,   1
   194,'1 ',1,   5,   1,    11.960,     6.190,     0.000,     0.000,     0.000,     0.000,   1
   195,'1 ',1,   5,   1,     4.830,     1.710,     0.000,     0.000,     0.000,     0.000,   1
   196,'1 ',1,   5,   1,    21.190,     6.500,     0.000,     0.000,     0.000,     0.000,   1
   197,'1 ',1,   5,   1,    24.230,     3.250,     0.000,     0.000,     0.000,     0.000,   1
   198,'1 ',1,   5,   1,    10.590,     3.780,     0.000,     0.000,     0.000,     0.000,   1
   199,'1 ',1,   5,   1,    50.460,   -32.100,     0.000,     0.000,     0.000,     0.000,   1
   200,'1 ',1,   5,   1,    19.620,     7.760,     0.000,     0.000,     0.000,     0.000,   1
   201,'1 ',1,   5,   1,    21.290,     2.830,     0.000,     0.000,     0.000,     0.000,   1
   202,'1 ',1,   5,   1,     5.870,     3.040,     0.000,     0.000,     0.000,     0.000,   1
   203,'1 ',1,   5,   1,    13.110,     4.830,     0.000,     0.000,     0.000,     0.000,   1
   204,'1 ',1,   5,   1,    22.970,     5.770,     0.000,     0.000,     0.000,     0.000,   1
   205,'1 ',1,   5,   1,     1.680,     0.940,     0.000,     0.000,     0.000,     0.000,   1
   206,'1 ',1,   5,   1,     6.820,     3.570,     0.000,     0.000,     0.000,     0.000,   1
   207,'1 ',1,   5,   1,    58.390,    -3.170,     0.000,     0.000,     0.000,     0.000,   1
   208,'1 ',1,   5,   1,    58.350,     5.660,     0.000,     0.000,     0.000,     0.000,   1
   209,'1 ',1,   5,   1,    50.980,     0.730,     0.000,     0.000,     0.000,     0.000,   1
   210,'1 ',1,   5,   1,     7.030,     3.990,     0.000,     0.000,     0.000,     0.000,   1
   211,'1 ',1,   5,   1,    27.800,     3.990,     0.000,     0.000,     0.000,     0.000,   1
   212,'1 ',1,   5,   1,    24.020,     7.130,     0.000,     0.000,     0.000,     0.000,   1
   213,'1 ',1,   5,   1,    17.950,     1.110,     0.000,     0.000,     0.000,     0.000,   1
   214,'1 ',1,   5,   1,    29.060,    -3.460,     0.000,     0.000,     0.000,     0.000,   1
   215,'1 ',1,   5,   1,    40.390,     6.740,     0.000,     0.000,     0.000,     0.000,   1
   216,'1 ',1,   5,   1,    17.850,    -0.980,     0.000,     0.000,     0.000,     0.000,   1
   217,'1 ',1,   5,   1,    30.950,    13.110,     0.000,     0.000,     0.000,     0.000,   1
   218,'1 ',1,   5,   1,    47.940,    -5.240,     0.000,     0.000,     0.000,     0.000,   1
   219,'1 ',1,   5,   1,    57.080,     5.780,     0.000,     0.000,     0.000,     0.000,   1
   220,'1 ',1,   5,   1,     1.150,     1.150,     0.000,     0.000,     0.000,     0.000,   1
   222,'1 ',1,   5,   1,     9.660,     5.040,     0.000,     0.000,     0.000,     0.000,   1
   223,'1 ',1,   5,   1,    87.170,    15.530,     0.000,     0.000,     0.000,     0.000,   1
   224,'1 ',1,   5,   1,    89.250,    45.410,     0.000,     0.000,     0.000,     0.000,   1
   225,'1 ',1,   5,   1,   132.790,    11.370,     0.000,     0.000,     0.000,     0.000,   1
   226,'1 ',1,   5,   1,     2.310,     8.710,     0.000,     0.000,     0.000,     0.000,   1
   227,'1 ',1,   5,   1,    14.160,     6.890,     0.000,     0.000,     0.000,     0.000,   1
   228,'1 ',1,   5,   1,     9.240,     3.550,     0.000,     0.000,     0.000,     0.000,   1
   229,'1 ',1,   5,   1,    47.280,    17.130,     0.000,     0.000,     0.000,     0.000,   1
   230,'1 ',1,   5,   1,    34.140,    11.490,     0.000,     0.000,     0.000,     0.000,   1
   232,'1 ',1,   5,   1,   367.920,   193.020,     0.000,     0.000,     0.000,     0.000,   1
   233,'1 ',1,   5,   1,    67.780,    18.740,     0.000,     0.000,     0.000,     0.000,   1
   234,'1 ',1,   5,   1,   110.770,    25.200,     0.000,     0.000,     0.000,     0.000,   1
   235,'1 ',1,   5,   1,    77.730,     5.450,     0.000,     0.000,     0.000,     0.000,   1
   236,'1 ',1,   5,   1,    31.990,    32.310,     0.000,     0.000,     0.000,     0.000,   1
   237,'1 ',1,   5,   1,     0.000,     4.340,     0.000,     0.000,     0.000,     0.000,   1
   238,'1 ',1,   5,   1,    14.140,     4.010,     0.000,     0.000,     0.000,     0.000,   1
   239,'1 ',1,   5,   1,     0.000,     5.980,     0.000,     0.000,     0.000,     0.000,   1
   240,'1 ',1,   5,   1,     0.040,    21.690,     0.000,     0.000,     0.000,     0.000,   1
   241,'1 ',1,   5,   1,     7.410,    -1.990,     0.000,     0.000,     0.000,     0.000,   1
   242,'1 ',1,   5,   1,    -0.010,    -0.100,     0.000,     0.000,     0.000,     0.000,   1
   243,'1 ',1,   5,   1,     0.010,    12.400,     0.000,     0.000,     0.000,     0.000,   1
   244,'1 ',1,   5,   1,     0.000,     5.970,     0.000,     0.000,     0.000,     0.000,   1
   245,'1 ',1,   5,   1,     8.500,     0.000,     0.000,     0.000,     0.000,     0.000,   1
   246,'1 ',1,   5,   1,    45.000,     1.570,     0.000,     0.000,     0.000,     0.000,   1
   247,'1 ',1,   5,   1,    13.320,     3.040,     0.000,     0.000,     0.000,     0.000,   1
   250,'1 ',1,   5,   1,    28.550,    -3.080,     0.000,     0.000,     0.000,     0.000,   1
   251,'1 ',1,   5,   1,     9.340,     2.620,     0.000,     0.000,     0.000,     0.000,   1
   252,'1 ',1,   5,   1,     2.940,     0.420,     0.000,     0.000,     0.000,     0.000,   1
   253,'1 ',1,   5,   1,     7.870,     2.830,     0.000,     0.000,     0.000,     0.000,   1
   255,'1 ',1,   5,   1,    20.040,   -12.270,     0.000,     0.000,     0.000,     0.000,   1
   256,'1 ',1,   5,   1,    84.970,     5.980,     0.000,     0.000,     0.000,     0.000,   1
   257,'1 ',1,   5,   1,    24.970,     7.550,     0.000,     0.000,     0.000,     0.000,   1
   258,'1 ',1,   5,   1,    17.460,    43.200,     0.000,     0.000,     0.000,     0.000,   1
   259,'1 ',1,   5,   1,     6.620,    26.410,     0.000,     0.000,     0.000,     0.000,   1
   261,'1 ',1,   5,   1,   -20.420,  -200.610,     0.000,     0.000,     0.000,     0.000,   1
   262,'1 ',1,   5,   1,    25.130,   186.630,     0.000,     0.000,     0.000,     0.000,   1
   264,'1 ',1,   5,   1,    -0.100,    32.720,     0.000,     0.000,     0.000,     0.000,   1
   265,'1 ',1,   5,   1,     7.710,     4.450,     0.000,     0.000,     0.000,     0.000,   1
   266,'1 ',1,   5,   1,    -0.150,    34.360,     0.000,     0.000,     0.000,     0.000,   1
   267,'1 ',1,   5,   1,    10.870,     1.500,     0.000,     0.000,     0.000,     0.000,   1
   268,'1 ',1,   5,   1,     8.010,     2.700,     0.000,     0.000,     0.000,     0.000,   1
...
 0 / END OF LOAD DATA, BEGIN GENERATOR DATA
     1,'1 ',   798.000,    59.497,   280.000,  -280.000,1.00900,     0,   100.000,   0.00000,   1.00000,   0.00000,   0.00000,1.00000,1,  100.0,  9999.000, -9999.000,   1,1.0000,   0,0.0000,   0,0.0000,   0,0.0000
     2,'1 ',  1218.000,  -156.696,   528.000,  -246.000,1.02600,     0,   100.000,   0.00000,   1.00000,   0.00000,   0.00000,1.00000,1,  100.0,  9999.000, -9999.000,   1,1.0000,   0,0.0000,   0,0.0000,   0,0.0000
     7,'1 ',   970.000,   399.228,   450.000,     0.000,1.05000,     0,   100.000,   0.00000,   1.00000,   0.00000,   0.00000,1.00000,1,  100.0,  9999.000, -9999.000,   1,1.0000,   0,0.0000,   0,0.0000,   0,0.0000
     8,'1 ',   140.000,   100.000,   100.000,     0.000,1.05000,     0,   100.000,   0.00000,   1.00000,   0.00000,   0.00000,1.00000,1,  100.0,  9999.000, -9999.000,   1,1.0000,   0,0.0000,   0,0.0000,   0,0.0000
     9,'1 ',   225.000,     6.593,    50.000,     0.000,1.00000,     0,   100.000,   0.00000,   1.00000,   0.00000,   0.00000,1.00000,1,  100.0,  9999.000, -9999.000,   1,1.0000,   0,0.0000,   0,0.0000,   0,0.0000
    18,'1 ',   255.430,   172.835,   500.000,     0.000,1.05000,     0,   100.000,   0.00000,   1.00000,   0.00000,   0.00000,1.00000,1,  100.0,  9999.000, -9999.000,   1,1.0000,   0,0.0000,   0,0.0000,   0,0.0000
    19,'1 ',  1400.000,   601.065,   658.000,  -100.000,1.04000,     0,   100.000,   0.00000,   1.00000,   0.00000,   0.00000,1.00000,1,  100.0,  9999.000, -9999.000,   1,1.0000,   0,0.0000,   0,0.0000,   0,0.0000
    20,'1 ',   231.000,   138.000,   138.000,   -93.000,1.05000,     0,   100.000,   0.00000,   1.00000,   0.00000,   0.00000,1.00000,1,  100.0,  9999.000, -9999.000,   1,1.0000,   0,0.0000,   0,0.0000,   0,0.0000
    21,'1 ',   375.110,    66.959,   200.000,  -100.000,1.01500,     0,   100.000,   0.00000,   1.00000,   0.00000,   0.00000,1.00000,1,  100.0,  9999.000, -9999.000,   1,1.0000,   0,0.0000,   0,0.0000,   0,0.0000
    22,'1 ',    56.000,    22.419,    72.000,    -3.000,1.01500,     0,   100.000,   0.00000,   1.00000,   0.00000,   0.00000,1.00000,1,  100.0,  9999.000, -9999.000,   1,1.0000,   0,0.0000,   0,0.0000,   0,0.0000
    76,'1 ',   606.730,   237.882,   350.000,  -250.000,1.03500,     0,   100.000,   0.00000,   1.00000,   0.00000,   0.00000,1.00000,1,  100.0,  9999.000, -9999.000,   1,1.0000,   0,0.0000,   0,0.0000,   0,0.0000
    78,'1 ',   300.000,   222.540,   350.000,  -150.000,1.03500,     0,   100.000,   0.00000,   1.00000,   0.00000,   0.00000,1.00000,1,  100.0,  9999.000, -9999.000,   1,1.0000,   0,0.0000,   0,0.0000,   0,0.0000
    88,'1 ',   300.000,   -15.779,   200.000,  -100.000,1.03500,     0,   100.000,   0.00000,   1.00000,   0.00000,   0.00000,1.00000,1,  100.0,  9999.000, -9999.000,   1,1.0000,   0,0.0000,   0,0.0000,   0,0.0000
    91,'1 ',     1.000,     0.000,     0.000,     0.000,1.00000,     0,   100.000,   0.00000,   1.00000,   0.00000,   0.00000,1.00000,1,  100.0,  9999.000, -9999.000,   1,1.0000,   0,0.0000,   0,0.0000,   0,0.0000
    98,'1 ',   800.000,  -120.000,   250.000,  -120.000,1.00000,     0,   100.000,   0.00000,   1.00000,   0.00000,   0.00000,1.00000,1,  100.0,  9999.000, -9999.000,   1,1.0000,   0,0.0000,   0,0.0000,   0,0.0000
   102,'1 ',  1100.000,     0.000,   460.000,     0.000,0.97600,     0,   100.000,   0.00000,   1.00000,   0.00000,   0.00000,1.00000,1,  100.0,  9999.000, -9999.000,   1,1.0000,   0,0.0000,   0,0.0000,   0,0.0000
   103,'1 ',   400.000,   -20.883,   250.000,  -150.000,1.02500,     0,   100.000,   0.00000,   1.00000,   0.00000,   0.00000,1.00000,1,  100.0,  9999.000, -9999.000,   1,1.0000,   0,0.0000,   0,0.0000,   0,0.0000
   112,'1 ',   930.000,  -200.269,   420.000,  -375.000,0.98900,     0,   100.000,   0.00000,   1.00000,   0.00000,   0.00000,1.00000,1,  100.0,  9999.000, -9999.000,   1,1.0000,   0,0.0000,   0,0.0000,   0,0.0000
   119,'1 ',     0.000,     2.748,   250.000,  -125.000,1.00000,     0,   100.000,   0.00000,   1.00000,   0.00000,   0.00000,1.00000,1,  100.0,  9999.000, -9999.000,   1,1.0000,   0,0.0000,   0,0.0000,   0,0.0000
   125,'1 ',     0.000,    -7.369,   272.000,  -133.000,1.00000,     0,   100.000,   0.00000,   1.00000,   0.00000,   0.00000,1.00000,1,  100.0,  9999.000, -9999.000,   1,1.0000,   0,0.0000,   0,0.0000,   0,0.0000
   134,'1 ',     0.000,    38.478,   140.000,   -60.000,1.00000,     0,   100.000,   0.00000,   1.00000,   0.00000,   0.00000,1.00000,1,  100.0,  9999.000, -9999.000,   1,1.0000,   0,0.0000,   0,0.0000,   0,0.0000
   135,'1 ',    40.000,    30.000,    30.000,   -15.000,1.00000,     0,   100.000,   0.00000,   1.00000,   0.00000,   0.00000,1.00000,1,  100.0,  9999.000, -9999.000,   1,1.0000,   0,0.0000,   0,0.0000,   0,0.0000
   151,'1 ',   120.000,  -168.059,    95.000,  -250.000,1.01700,     0,   100.000,   0.00000,   1.00000,   0.00000,   0.00000,1.00000,1,  100.0,  9999.000, -9999.000,   1,1.0000,   0,0.0000,   0,0.0000,   0,0.0000
   153,'1 ',    75.000,   -65.000,    30.000,   -65.000,1.00000,     0,   100.000,   0.00000,   1.00000,   0.00000,   0.00000,1.00000,1,  100.0,  9999.000, -9999.000,   1,1.0000,   0,0.0000,   0,0.0000,   0,0.0000
   157,'1 ',     0.000,   -50.000,     0.000,   -50.000,1.00000,     0,   100.000,   0.00000,   1.00000,   0.00000,   0.00000,1.00000,1,  100.0,  9999.000, -9999.000,   1,1.0000,   0,0.0000,   0,0.0000,   0,0.0000
   172,'1 ',   705.000,  -100.000,   160.000,  -100.000,1.00900,     0,   100.000,   0.00000,   1.00000,   0.00000,   0.00000,1.00000,1,  100.0,  9999.000, -9999.000,   1,1.0000,   0,0.0000,   0,0.0000,   0,0.0000
   181,'1 ',     0.000,   -50.000,     0.000,   -50.000,1.00000,     0,   100.000,   0.00000,   1.00000,   0.00000,   0.00000,1.00000,1,  100.0,  9999.000, -9999.000,   1,1.0000,   0,0.0000,   0,0.0000,   0,0.0000
   197,'1 ',     0.000,   -50.000,     0.000,   -50.000,1.00000,     0,   100.000,   0.00000,   1.00000,   0.00000,   0.00000,1.00000,1,  100.0,  9999.000, -9999.000,   1,1.0000,   0,0.0000,   0,0.0000,   0,0.0000
   199,'1 ',     0.000,   -50.000,     0.000,   -50.000,1.00000,     0,   100.000,   0.00000,   1.00000,   0.00000,   0.00000,1.00000,1,  100.0,  9999.000, -9999.000,   1,1.0000,   0,0.0000,   0,0.0000,   0,0.0000
   201,'1 ',     0.000,   -26.244,     0.000,   -50.000,1.00000,     0,   100.000,   0.00000,   1.00000,   0.00000,   0.00000,1.00000,1,  100.0,  9999.000, -9999.000,   1,1.0000,   0,0.0000,   0,0.0000,   0,0.0000
   208,'1 ',     0.000,   -50.000,     0.000,   -50.000,1.00000,     0,   100.000,   0.00000,   1.00000,   0.00000,   0.00000,1.00000,1,  100.0,  9999.000, -9999.000,   1,1.0000,   0,0.0000,   0,0.0000,   0,0.0000
   219,'1 ',     0.000,   -22.267,     0.000,   -50.000,1.00000,     0,   100.000,   0.00000,   1.00000,   0.00000,   0.00000,1.00000,1,  100.0,  9999.000, -9999.000,   1,1.0000,   0,0.0000,   0,0.0000,   0,0.0000
   223,'1 ',     0.000,     0.000,     0.000,   -50.000,1.00000,     0,   100.000,   0.00000,   1.00000,   0.00000,   0.00000,1.00000,1,  100.0,  9999.000, -9999.000,   1,1.0000,   0,0.0000,   0,0.0000,   0,0.0000
   224,'1 ',   357.080,    64.234,   280.000,  -180.000,1.01700,     0,   100.000,   0.00000,   1.00000,   0.00000,   0.00000,1.00000,1,  100.0,  9999.000, -9999.000,   1,1.0000,   0,0.0000,   0,0.0000,   0,0.0000
   232,'1 ',   320.000,    80.837,   205.000,   -95.000,1.03500,     0,   100.000,   0.00000,   1.00000,   0.00000,   0.00000,1.00000,1,  100.0,  9999.000, -9999.000,   1,1.0000,   0,0.0000,   0,0.0000,   0,0.0000
   238,'1 ',   300.000,    -3.964,   180.000,   -60.000,1.02600,     0,   100.000,   0.00000,   1.00000,   0.00000,   0.00000,1.00000,1,  100.0,  9999.000, -9999.000,   1,1.0000,   0,0.0000,   0,0.0000,   0,0.0000
   258,'1 ',     0.000,  -281.539,     0.000,  -450.000,1.00000,     0,   100.000,   0.00000,   1.00000,   0.00000,   0.00000,1.00000,1,  100.0,  9999.000, -9999.000,   1,1.0000,   0,0.0000,   0,0.0000,   0,0.0000
   270,'1 ',   260.000,    51.237,   134.000,   -80.000,1.00900,     0,   100.000,   0.00000,   1.00000,   0.00000,   0.00000,1.00000,1,  100.0,  9999.000, -9999.000,   1,1.0000,   0,0.0000,   0,0.0000,   0,0.0000
   276,'1 ',     0.000,     5.000,     5.000,    -3.000,0.99600,     0,   100.000,   0.00000,   1.00000,   0.00000,   0.00000,1.00000,1,  100.0,  9999.000, -9999.000,   1,1.0000,   0,0.0000,   0,0.0000,   0,0.0000
   326,'1 ',   965.000,   -60.000,   180.000,   -60.000,1.00000,     0,   100.000,   0.00000,   1.00000,   0.00000,   0.00000,1.00000,1,  100.0,  9999.000, -9999.000,   1,1.0000,   0,0.0000,   0,0.0000,   0,0.0000
   327,'1 ',  1000.000,  -107.864,   375.000,  -200.000,1.00900,     0,   100.000,   0.00000,   1.00000,   0.00000,   0.00000,1.00000,1,  100.0,  9999.000, -9999.000,   1,1.0000,   0,0.0000,   0,0.0000,   0,0.0000
   330,'1 ',   600.000,   128.693,   260.000,   -50.000,1.00900,     0,   100.000,   0.00000,   1.00000,   0.00000,   0.00000,1.00000,1,  100.0,  9999.000, -9999.000,   1,1.0000,   0,0.0000,   0,0.0000,   0,0.0000
   336,'1 ',   600.000,   150.916,   200.000,  -100.000,0.97600,     0,   100.000,   0.00000,   1.00000,   0.00000,   0.00000,1.00000,1,  100.0,  9999.000, -9999.000,   1,1.0000,   0,0.0000,   0,0.0000,   0,0.0000
   340,'1 ',  1340.000,   162.830,   480.000,    40.000,0.98900,     0,   100.000,   0.00000,   1.00000,   0.00000,   0.00000,1.00000,1,  100.0,  9999.000, -9999.000,   1,1.0000,   0,0.0000,   0,0.0000,   0,0.0000
   370,'1 ',   600.000,   190.000,   190.000,  -100.000,1.00900,     0,   100.000,   0.00000,   1.00000,   0.00000,   0.00000,1.00000,1,  100.0,  9999.000, -9999.000,   1,1.0000,   0,0.0000,   0,0.0000,   0,0.0000
   376,'1 ',   500.000,   173.272,   250.000,  -150.000,1.00400,     0,   100.000,   0.00000,   1.00000,   0.00000,   0.00000,1.00000,1,  100.0,  9999.000, -9999.000,   1,1.0000,   0,0.0000,   0,0.0000,   0,0.0000
   404,'1 ',   415.000,   121.238,   180.000,   -60.000,1.02500,     0,   100.000,   0.00000,   1.00000,   0.00000,   0.00000,1.00000,1,  100.0,  9999.000, -9999.000,   1,1.0000,   0,0.0000,   0,0.0000,   0,0.0000
   442,'1 ',     0.000,    80.000,    80.000,  -105.000,1.01300,     0,   100.000,   0.00000,   1.00000,   0.00000,   0.00000,1.00000,1,  100.0,  9999.000, -9999.000,   1,1.0000,   0,0.0000,   0,0.0000,   0,0.0000
   480,'1 ',  1240.000,   132.253,   700.000,  -300.000,1.02500,     0,   100.000,   0.00000,   1.00000,   0.00000,   0.00000,1.00000,1,  100.0,  9999.000, -9999.000,   1,1.0000,   0,0.0000,   0,0.0000,   0,0.0000
   484,'1 ',   130.000,    74.355,    89.000,     0.000,1.02500,     0,   100.000,   0.00000,   1.00000,   0.00000,   0.00000,1.00000,1,  100.0,  9999.000, -9999.000,   1,1.0000,   0,0.0000,   0,0.0000,   0,0.0000
   485,'1 ',    95.000,    58.000,    58.000,     0.000,1.02500,     0,   100.000,   0.00000,   1.00000,   0.00000,   0.00000,1.00000,1,  100.0,  9999.000, -9999.000,   1,1.0000,   0,0.0000,   0,0.0000,   0,0.0000
   514,'1 ',   295.000,   120.934,   129.000,     0.000,1.02500,     0,   100.000,   0.00000,   1.00000,   0.00000,   0.00000,1.00000,1,  100.0,  9999.000, -9999.000,   1,1.0000,   0,0.0000,   0,0.0000,   0,0.0000
   537,'1 ',   585.000,    20.264,   180.000,  -120.000,1.01700,     0,   100.000,   0.00000,   1.00000,   0.00000,   0.00000,1.00000,1,  100.0,  9999.000, -9999.000,   1,1.0000,   0,0.0000,   0,0.0000,   0,0.0000
   538,'1 ',   380.000,     1.471,   200.000,  -200.000,1.04800,     0,   100.000,   0.00000,   1.00000,   0.00000,   0.00000,1.00000,1,  100.0,  9999.000, -9999.000,   1,1.0000,   0,0.0000,   0,0.0000,   0,0.0000
   542,'1 ',     0.000,   180.528,   345.000,  -220.000,1.02500,     0,   100.000,   0.00000,   1.00000,   0.00000,   0.00000,1.00000,1,  100.0,  9999.000, -9999.000,   1,1.0000,   0,0.0000,   0,0.0000,   0,0.0000
   547,'1 ',  1050.000,    95.764,   500.000,  -200.000,1.03000,     0,   100.000,   0.00000,   1.00000,   0.00000,   0.00000,1.00000,1,  100.0,  9999.000, -9999.000,   1,1.0000,   0,0.0000,   0,0.0000,   0,0.0000
   554,'1 ',  1100.000,  -255.316,   500.000,  -300.000,1.00000,     0,   100.000,   0.00000,   1.00000,   0.00000,   0.00000,1.00000,1,  100.0,  9999.000, -9999.000,   1,1.0000,   0,0.0000,   0,0.0000,   0,0.0000
   606,'1 ',     0.000,    37.046,    68.600,   -75.000,1.01000,     0,   100.000,   0.00000,   1.00000,   0.00000,   0.00000,1.00000,1,  100.0,  9999.000, -9999.000,   1,1.0000,   0,0.0000,   0,0.0000,   0,0.0000
   607,'1 ',   150.000,    35.697,   150.000,   -50.000,1.04300,     0,   100.000,   0.00000,   1.00000,   0.00000,   0.00000,1.00000,1,  100.0,  9999.000, -9999.000,   1,1.0000,   0,0.0000,   0,0.0000,   0,0.0000
   649,'1 ',   660.000,   194.164,   310.000,  -250.000,1.03000,     0,   100.000,   0.00000,   1.00000,   0.00000,   0.00000,1.00000,1,  100.0,  9999.000, -9999.000,   1,1.0000,   0,0.0000,   0,0.0000,   0,0.0000
   651,'1 ',   350.000,    92.349,   175.000,   -85.000,1.05000,     0,   100.000,   0.00000,   1.00000,   0.00000,   0.00000,1.00000,1,  100.0,  9999.000, -9999.000,   1,1.0000,   0,0.0000,   0,0.0000,   0,0.0000
   652,'1 ',   140.000,    25.632,    60.000,   -60.000,1.01000,     0,   100.000,   0.00000,   1.00000,   0.00000,   0.00000,1.00000,1,  100.0,  9999.000, -9999.000,   1,1.0000,   0,0.0000,   0,0.0000,   0,0.0000
   660,'1 ',   738.190,   -54.845,   750.000,  -375.000,1.03000,     0,   100.000,   0.00000,   1.00000,   0.00000,   0.00000,1.00000,1,  100.0,  9999.000, -9999.000,   1,1.0000,   0,0.0000,   0,0.0000,   0,0.0000
   661,'1 ',   520.000,    42.955,   250.000,  -125.000,1.03000,     0,   100.000,   0.00000,   1.00000,   0.00000,   0.00000,1.00000,1,  100.0,  9999.000, -9999.000,   1,1.0000,   0,0.0000,   0,0.0000,   0,0.0000
   666,'1 ',   175.000,    90.000,    90.000,   -45.000,1.03000,     0,   100.000,   0.00000,   1.00000,   0.00000,   0.00000,1.00000,1,  100.0,  9999.000, -9999.000,   1,1.0000,   0,0.0000,   0,0.0000,   0,0.0000
   698,'1 ',   205.000,     7.840,   195.000,  -100.000,1.03000,     0,   100.000,   0.00000,   1.00000,   0.00000,   0.00000,1.00000,1,  100.0,  9999.000, -9999.000,   1,1.0000,   0,0.0000,   0,0.0000,   0,0.0000
   700,'1 ',   274.000,    -5.423,   250.000,  -125.000,1.02500,     0,   100.000,   0.00000,   1.00000,   0.00000,   0.00000,1.00000,1,  100.0,  9999.000, -9999.000,   1,1.0000,   0,0.0000,   0,0.0000,   0,0.0000
   701,'1 ',   150.000,    81.302,   150.000,   -75.000,1.02500,     0,   100.000,   0.00000,   1.00000,   0.00000,   0.00000,1.00000,1,  100.0,  9999.000, -9999.000,   1,1.0000,   0,0.0000,   0,0.0000,   0,0.0000
   703,'1 ',    70.000,    65.000,    65.000,   -30.000,1.03000,     0,   100.000,   0.00000,   1.00000,   0.00000,   0.00000,1.00000,1,  100.0,  9999.000, -9999.000,   1,1.0000,   0,0.0000,   0,0.0000,   0,0.0000
   715,'1 ',  2400.000,   -67.682,  1300.000,  -920.000,1.04300,     0,   100.000,   0.00000,   1.00000,   0.00000,   0.00000,1.00000,1,  100.0,  9999.000, -9999.000,   1,1.0000,   0,0.0000,   0,0.0000,   0,0.0000
   720,'1 ',   450.000,    68.658,   200.000,  -200.000,1.04000,     0,   100.000,   0.00000,   1.00000,   0.00000,   0.00000,1.00000,1,  100.0,  9999.000, -9999.000,   1,1.0000,   0,0.0000,   0,0.0000,   0,0.0000
   730,'1 ',   450.000,    69.038,   200.000,  -200.000,1.04000,     0,   100.000,   0.00000,   1.00000,   0.00000,   0.00000,1.00000,1,  100.0,  9999.000, -9999.000,   1,1.0000,   0,0.0000,   0,0.0000,   0,0.0000
   736,'1 ',   150.000,    63.184,   200.000,   -70.000,1.03000,     0,   100.000,   0.00000,   1.00000,   0.00000,   0.00000,1.00000,1,  100.0,  9999.000, -9999.000,   1,1.0000,   0,0.0000,   0,0.0000,   0,0.0000
   742,'1 ',   300.000,    74.058,   270.000,  -175.000,1.03000,     0,   100.000,   0.00000,   1.00000,   0.00000,   0.00000,1.00000,1,  100.0,  9999.000, -9999.000,   1,1.0000,   0,0.0000,   0,0.0000,   0,0.0000
   747,'1 ',     0.000,    10.000,    10.000,    10.000,0.99750,     0,   100.000,   0.00000,   1.00000,   0.00000,   0.00000,1.00000,1,  100.0,  9999.000, -9999.000,   1,1.0000,   0,0.0000,   0,0.0000,   0,0.0000
   749,'1 ',    96.840,   -65.000,   135.000,   -65.000,1.00000,     0,   100.000,   0.00000,   1.00000,   0.00000,   0.00000,1.00000,1,  100.0,  9999.000, -9999.000,   1,1.0000,   0,0.0000,   0,0.0000,   0,0.0000
   759,'1 ',   150.000,    96.249,   200.000,   -70.000,1.01400,     0,   100.000,   0.00000,   1.00000,   0.00000,   0.00000,1.00000,1,  100.0,  9999.000, -9999.000,   1,1.0000,   0,0.0000,   0,0.0000,   0,0.0000
   767,'1 ',    50.000,    13.228,    40.000,   -20.000,1.01300,     0,   100.000,   0.00000,   1.00000,   0.00000,   0.00000,1.00000,1,  100.0,  9999.000, -9999.000,   1,1.0000,   0,0.0000,   0,0.0000,   0,0.0000
   779,'1 ',   435.000,    67.331,   170.000,  -113.000,1.04000,     0,   100.000,   0.00000,   1.00000,   0.00000,   0.00000,1.00000,1,  100.0,  9999.000, -9999.000,   1,1.0000,   0,0.0000,   0,0.0000,   0,0.0000
   781,'1 ',   100.000,    40.557,    70.000,   -70.000,1.03000,     0,   100.000,   0.00000,   1.00000,   0.00000,   0.00000,1.00000,1,  100.0,  9999.000, -9999.000,   1,1.0000,   0,0.0000,   0,0.0000,   0,0.0000
   807,'1 ',  1100.000,   136.708,   766.700,  -399.700,1.05000,     0,   100.000,   0.00000,   1.00000,   0.00000,   0.00000,1.00000,1,  100.0,  9999.000, -9999.000,   1,1.0000,   0,0.0000,   0,0.0000,   0,0.0000
   824,'1 ',   280.000,    89.202,   100.000,   -50.300,1.01500,     0,   100.000,   0.00000,   1.00000,   0.00000,   0.00000,1.00000,1,  100.0,  9999.000, -9999.000,   1,1.0000,   0,0.0000,   0,0.0000,   0,0.0000
   827,'1 ',   723.000,   263.524,   323.000,  -160.000,1.00000,     0,   100.000,   0.00000,   1.00000,   0.00000,   0.00000,1.00000,1,  100.0,  9999.000, -9999.000,   1,1.0000,   0,0.0000,   0,0.0000,   0,0.0000
   832,'1 ',    -3.200,     0.000,     0.000,     0.000,1.00300,     0,   100.000,   0.00000,   1.00000,   0.00000,   0.00000,1.00000,1,  100.0,  9999.000, -9999.000,   1,1.0000,   0,0.0000,   0,0.0000,   0,0.0000
   833,'1 ',     2.000,     0.000,     0.000,     0.000,1.00560,     0,   100.000,   0.00000,   1.00000,   0.00000,   0.00000,1.00000,1,  100.0,  9999.000, -9999.000,   1,1.0000,   0,0.0000,   0,0.0000,   0,0.0000
   838,'1 ',    -1.800,     0.000,     0.000,     0.000,0.97540,     0,   100.000,   0.00000,   1.00000,   0.00000,   0.00000,1.00000,1,  100.0,  9999.000, -9999.000,   1,1.0000,   0,0.0000,   0,0.0000,   0,0.0000
   846,'1 ',     0.000,    15.800,    15.800,    15.800,0.98340,     0,   100.000,   0.00000,   1.00000,   0.00000,   0.00000,1.00000,1,  100.0,  9999.000, -9999.000,   1,1.0000,   0,0.0000,   0,0.0000,   0,0.0000
   847,'1 ',    -7.300,     0.000,     0.000,     0.000,1.03630,     0,   100.000,   0.00000,   1.00000,   0.00000,   0.00000,1.00000,1,  100.0,  9999.000, -9999.000,   1,1.0000,   0,0.0000,   0,0.0000,   0,0.0000
   849,'1 ',   590.000,   144.669,   376.000,  -201.000,1.04900,     0,   100.000,   0.00000,   1.00000,   0.00000,   0.00000,1.00000,1,  100.0,  9999.000, -9999.000,   1,1.0000,   0,0.0000,   0,0.0000,   0,0.0000
   851,'1 ',   261.000,    39.728,   150.000,   -53.000,1.04900,     0,   100.000,   0.00000,   1.00000,   0.00000,   0.00000,1.00000,1,  100.0,  9999.000, -9999.000,   1,1.0000,   0,0.0000,   0,0.0000,   0,0.0000
   852,'1 ',   198.000,    44.920,   119.000,   -59.000,1.04900,     0,   100.000,   0.00000,   1.00000,   0.00000,   0.00000,1.00000,1,  100.0,  9999.000, -9999.000,   1,1.0000,   0,0.0000,   0,0.0000,   0,0.0000
   854,'1 ',    32.800,     3.400,     3.400,     3.400,1.01150,     0,   100.000,   0.00000,   1.00000,   0.00000,   0.00000,1.00000,1,  100.0,  9999.000, -9999.000,   1,1.0000,   0,0.0000,   0,0.0000,   0,0.0000
   857,'1 ',     5.800,     1.100,     1.100,     1.100,1.01300,     0,   100.000,   0.00000,   1.00000,   0.00000,   0.00000,1.00000,1,  100.0,  9999.000, -9999.000,   1,1.0000,   0,0.0000,   0,0.0000,   0,0.0000
   858,'1 ',    63.000,    13.500,    13.500,    13.500,1.02380,     0,   100.000,   0.00000,   1.00000,   0.00000,   0.00000,1.00000,1,  100.0,  9999.000, -9999.000,   1,1.0000,   0,0.0000,   0,0.0000,   0,0.0000
   865,'1 ',   800.000,   119.757,   668.000,  -639.000,1.04300,     0,   100.000,   0.00000,   1.00000,   0.00000,   0.00000,1.00000,1,  100.0,  9999.000, -9999.000,   1,1.0000,   0,0.0000,   0,0.0000,   0,0.0000
   868,'1 ',    12.000,     0.000,     0.000,     0.000,1.00030,     0,   100.000,   0.00000,   1.00000,   0.00000,   0.00000,1.00000,1,  100.0,  9999.000, -9999.000,   1,1.0000,   0,0.0000,   0,0.0000,   0,0.0000
   869,'1 ',     9.000,     0.000,     0.000,     0.000,0.98220,     0,   100.000,   0.00000,   1.00000,   0.00000,   0.00000,1.00000,1,  100.0,  9999.000, -9999.000,   1,1.0000,   0,0.0000,   0,0.0000,   0,0.0000
   870,'1 ',   520.000,   114.012,   256.000,  -204.000,1.04900,     0,   100.000,   0.00000,   1.00000,   0.00000,   0.00000,1.00000,1,  100.0,  9999.000, -9999.000,   1,1.0000,   0,0.0000,   0,0.0000,   0,0.0000
   872,'1 ',   -23.900,     0.000,     0.000,     0.000,1.01180,     0,   100.000,   0.00000,   1.00000,   0.00000,   0.00000,1.00000,1,  100.0,  9999.000, -9999.000,   1,1.0000,   0,0.0000,   0,0.0000,   0,0.0000
   878,'1 ',   757.910,  -180.164,   648.000, -1181.000,1.04200,     0,   100.000,   0.00000,   1.00000,   0.00000,   0.00000,1.00000,1,  100.0,  9999.000, -9999.000,   1,1.0000,   0,0.0000,   0,0.0000,   0,0.0000
   880,'1 ',     2.000,     0.000,     0.000,     0.000,1.00250,     0,   100.000,   0.00000,   1.00000,   0.00000,   0.00000,1.00000,1,  100.0,  9999.000, -9999.000,   1,1.0000,   0,0.0000,   0,0.0000,   0,0.0000
   881,'1 ',   -13.500,     0.000,     0.000,     0.000,0.97410,     0,   100.000,   0.00000,   1.00000,   0.00000,   0.00000,1.00000,1,  100.0,  9999.000, -9999.000,   1,1.0000,   0,0.0000,   0,0.0000,   0,0.0000
   885,'1 ',   635.000,    46.347,   510.000,  -364.000,1.03500,     0,   100.000,   0.00000,   1.00000,   0.00000,   0.00000,1.00000,1,  100.0,  9999.000, -9999.000,   1,1.0000,   0,0.0000,   0,0.0000,   0,0.0000
   886,'1 ',   -24.500,     0.000,     0.000,     0.000,1.02650,     0,   100.000,   0.00000,   1.00000,   0.00000,   0.00000,1.00000,1,  100.0,  9999.000, -9999.000,   1,1.0000,   0,0.0000,   0,0.0000,   0,0.0000
   888,'1 ',   -26.300,     0.000,     0.000,     0.000,1.02970,     0,   100.000,   0.00000,   1.00000,   0.00000,   0.00000,1.00000,1,  100.0,  9999.000, -9999.000,   1,1.0000,   0,0.0000,   0,0.0000,   0,0.0000
   896,'1 ',    18.000,     0.000,     0.000,     0.000,0.99980,     0,   100.000,   0.00000,   1.00000,   0.00000,   0.00000,1.00000,1,  100.0,  9999.000, -9999.000,   1,1.0000,   0,0.0000,   0,0.0000,   0,0.0000
   898,'1 ',   783.000,    92.603,   527.000,  -360.000,1.03500,     0,   100.000,   0.00000,   1.00000,   0.00000,   0.00000,1.00000,1,  100.0,  9999.000, -9999.000,   1,1.0000,   0,0.0000,   0,0.0000,   0,0.0000
...